
 &NAMLST
   DOT40=FALSE, TEST=FALSE, DOVTMP= TRUE, DOTMP= TRUE,
 /

     THESE CARDS VALID FOR CDAS VERSION OF CQCBUFR

