
 &NAMLST
   TEST=FALSE, DOVTMP=FALSE
 /

     THESE CARDS VALID FOR RAP VERSION OF CQCBUFR

