
 &NAMLST
   TEST=FALSE, DOVTMP=FALSE
 /

     THESE CARDS VALID FOR RRFS VERSION OF CQCBUFR

