
 &NAMLST
   TEST=FALSE, DOVTMP=FALSE
 /

     THESE CARDS VALID FOR URMA VERSION OF CQCBUFR

