
 &NAMLST
   TEST=FALSE, DOVTMP= TRUE
 /

     THESE CARDS VALID FOR GSI/GFS VERSION OF CQCBUFR

