
 &NAMLST
   TEST=FALSE, DOVTMP= TRUE
 /

     THESE CARDS VALID FOR GSI/NAM VERSION OF CQCBUFR

